LTspice 26.0.1 for Windows
Circuit: C:\Users\altin\OneDrive\Belgeler\GitHub\simulation\Bobibn ile seri R-L devresi_opto_v2.net
Start Time: Tue Jul 14 15:36:38 2026
solver = Normal
Maximum thread count: 12
tnom = 27
temp = 27
method = trap
Direct Newton iteration succeeded in finding operating point.
Total elapsed time: 0.116 seconds.

Files loaded:
C:\Users\altin\OneDrive\Belgeler\GitHub\simulation\Bobibn ile seri R-L devresi_opto_v2.net
C:\Users\altin\AppData\Local\LTspice\lib\cmp\standard.dio
C:\Users\altin\AppData\Local\LTspice\lib\sub\PC817.sub

